*EXP.DETAILS: UFKS2323SN CLKS

*GENERAL
@PEOPLE
-99
@ADDRESS
-99
@SITE
-99

*TREATMENTS                        -------------FACTOR LEVELS------------
@N R O C TNAME.................... CU FL SA IC MP MI MF MR MC MT ME MH SM
 1 1 1 0 Sim1                       1  1  0  0  1  0  0  0  0  0  0  0  1
 2 1 1 0 Sim2                       1  1  0  0  1  0  0  0  0  0  0  0  2
 3 1 1 0 Sim3                       1  1  0  0  1  0  0  0  0  0  0  0  3
 4 1 1 0 Sim4                       1  1  0  0  1  0  0  0  0  0  0  0  4
 5 1 1 0 Sim5                       1  1  0  0  2  0  0  0  0  0  0  0  1
 6 1 1 0 Sim6                       1  1  0  0  2  0  0  0  0  0  0  0  2
 7 1 1 0 Sim7                       1  1  0  0  2  0  0  0  0  0  0  0  3
 8 1 1 0 Sim8                       1  1  0  0  2  0  0  0  0  0  0  0  4
 9 1 1 0 Sim9                       1  1  0  0  3  0  0  0  0  0  0  0  1
10 1 1 0 Sim10                      1  1  0  0  3  0  0  0  0  0  0  0  2
11 1 1 0 Sim11                      1  1  0  0  3  0  0  0  0  0  0  0  3
12 1 1 0 Sim12                      1  1  0  0  3  0  0  0  0  0  0  0  4
13 1 1 0 Sim13                      1  1  0  0  4  0  0  0  0  0  0  0  1
14 1 1 0 Sim14                      1  1  0  0  4  0  0  0  0  0  0  0  2
15 1 1 0 Sim15                      1  1  0  0  4  0  0  0  0  0  0  0  3
16 1 1 0 Sim16                      1  1  0  0  4  0  0  0  0  0  0  0  4
17 1 1 0 Sim17                      1  1  0  0  5  0  0  0  0  0  0  0  1
18 1 1 0 Sim18                      1  1  0  0  5  0  0  0  0  0  0  0  2
19 1 1 0 Sim19                      1  1  0  0  5  0  0  0  0  0  0  0  3
20 1 1 0 Sim20                      1  1  0  0  5  0  0  0  0  0  0  0  4
21 1 1 0 Sim21                      1  1  0  0  6  0  0  0  0  0  0  0  1
22 1 1 0 Sim22                      1  1  0  0  6  0  0  0  0  0  0  0  2
23 1 1 0 Sim23                      1  1  0  0  6  0  0  0  0  0  0  0  3
24 1 1 0 Sim24                      1  1  0  0  6  0  0  0  0  0  0  0  4
25 1 1 0 Sim25                      1  1  0  0  7  0  0  0  0  0  0  0  1
26 1 1 0 Sim26                      1  1  0  0  7  0  0  0  0  0  0  0  2
27 1 1 0 Sim27                      1  1  0  0  7  0  0  0  0  0  0  0  3
28 1 1 0 Sim28                      1  1  0  0  7  0  0  0  0  0  0  0  4
29 1 1 0 Sim29                      1  1  0  0  8  0  0  0  0  0  0  0  1
30 1 1 0 Sim30                      1  1  0  0  8  0  0  0  0  0  0  0  2
31 1 1 0 Sim31                      1  1  0  0  8  0  0  0  0  0  0  0  3
32 1 1 0 Sim32                      1  1  0  0  8  0  0  0  0  0  0  0  4
33 1 1 0 Sim33                      1  1  0  0  9  0  0  0  0  0  0  0  1
34 1 1 0 Sim34                      1  1  0  0  9  0  0  0  0  0  0  0  2
35 1 1 0 Sim35                      1  1  0  0  9  0  0  0  0  0  0  0  3
36 1 1 0 Sim36                      1  1  0  0  9  0  0  0  0  0  0  0  4
37 1 1 0 Sim37                      1  1  0  0 10  0  0  0  0  0  0  0  1
38 1 1 0 Sim38                      1  1  0  0 10  0  0  0  0  0  0  0  2
39 1 1 0 Sim39                      1  1  0  0 10  0  0  0  0  0  0  0  3
40 1 1 0 Sim40                      1  1  0  0 10  0  0  0  0  0  0  0  4
41 1 1 0 Sim41                      1  1  0  0 11  0  0  0  0  0  0  0  1
42 1 1 0 Sim42                      1  1  0  0 11  0  0  0  0  0  0  0  2
43 1 1 0 Sim43                      1  1  0  0 11  0  0  0  0  0  0  0  3
44 1 1 0 Sim44                      1  1  0  0 11  0  0  0  0  0  0  0  4
45 1 1 0 Sim45                      1  1  0  0 12  0  0  0  0  0  0  0  1
46 1 1 0 Sim46                      1  1  0  0 12  0  0  0  0  0  0  0  2
47 1 1 0 Sim47                      1  1  0  0 12  0  0  0  0  0  0  0  3
48 1 1 0 Sim48                      1  1  0  0 12  0  0  0  0  0  0  0  4
49 1 1 0 Sim49                      1  1  0  0 13  0  0  0  0  0  0  0  1
50 1 1 0 Sim50                      1  1  0  0 13  0  0  0  0  0  0  0  2
51 1 1 0 Sim51                      1  1  0  0 13  0  0  0  0  0  0  0  3
52 1 1 0 Sim52                      1  1  0  0 13  0  0  0  0  0  0  0  4
53 1 1 0 Sim53                      1  1  0  0 14  0  0  0  0  0  0  0  1
54 1 1 0 Sim54                      1  1  0  0 14  0  0  0  0  0  0  0  2
55 1 1 0 Sim55                      1  1  0  0 14  0  0  0  0  0  0  0  3
56 1 1 0 Sim56                      1  1  0  0 14  0  0  0  0  0  0  0  4
57 1 1 0 Sim57                      1  1  0  0 15  0  0  0  0  0  0  0  1
58 1 1 0 Sim58                      1  1  0  0 15  0  0  0  0  0  0  0  2
59 1 1 0 Sim59                      1  1  0  0 15  0  0  0  0  0  0  0  3
60 1 1 0 Sim60                      1  1  0  0 15  0  0  0  0  0  0  0  4
61 1 1 0 Sim61                      1  1  0  0 16  0  0  0  0  0  0  0  1
62 1 1 0 Sim62                      1  1  0  0 16  0  0  0  0  0  0  0  2
63 1 1 0 Sim63                      1  1  0  0 16  0  0  0  0  0  0  0  3
64 1 1 0 Sim64                      1  1  0  0 16  0  0  0  0  0  0  0  4
65 1 1 0 Sim65                      1  1  0  0 17  0  0  0  0  0  0  0  1
66 1 1 0 Sim66                      1  1  0  0 17  0  0  0  0  0  0  0  2
67 1 1 0 Sim67                      1  1  0  0 17  0  0  0  0  0  0  0  3
68 1 1 0 Sim68                      1  1  0  0 17  0  0  0  0  0  0  0  4
69 1 1 0 Sim69                      1  1  0  0 18  0  0  0  0  0  0  0  1
70 1 1 0 Sim70                      1  1  0  0 18  0  0  0  0  0  0  0  2
71 1 1 0 Sim71                      1  1  0  0 18  0  0  0  0  0  0  0  3
72 1 1 0 Sim72                      1  1  0  0 18  0  0  0  0  0  0  0  4
73 1 1 0 Sim73                      1  1  0  0 19  0  0  0  0  0  0  0  1
74 1 1 0 Sim74                      1  1  0  0 19  0  0  0  0  0  0  0  2
75 1 1 0 Sim75                      1  1  0  0 19  0  0  0  0  0  0  0  3
76 1 1 0 Sim76                      1  1  0  0 19  0  0  0  0  0  0  0  4
77 1 1 0 Sim77                      1  1  0  0 20  0  0  0  0  0  0  0  1
78 1 1 0 Sim78                      1  1  0  0 20  0  0  0  0  0  0  0  2
79 1 1 0 Sim79                      1  1  0  0 20  0  0  0  0  0  0  0  3
80 1 1 0 Sim80                      1  1  0  0 20  0  0  0  0  0  0  0  4

*CULTIVARS
@C CR INGENO CNAME
 1 SG IB0028 PIONEER 8333

*FIELDS
@L ID_FIELD WSTA....  FLSA  FLOB  FLDT  FLDD  FLDS  FLST SLTX  SLDP  ID_SOIL    FLNAME
 1 12345678 CLKS0023   -99   -99   -99   -99   -99   -99 -99    -99  UFCLOUD_KS -99
@L ...........XCRD ...........YCRD .....ELEV .............AREA .SLEN .FLWR .SLAS FLHST FHDUR
 1             -99             -99       -99               -99   -99   -99   -99   -99   -99

*SOIL ANALYSIS
@A SADAT  SMHB  SMPX  SMKE  SANAME
 1 00136   -99   -99   -99  -99
@A  SABL  SADM  SAOC  SANI SAPHW SAPHB  SAPX  SAKE  SASC
 1    15   -99   -99   -99   -99   -99   -99   -99   -99

*INITIAL CONDITIONS
@C   PCR ICDAT  ICRT  ICND  ICRN  ICRE  ICWD ICRES ICREN ICREP ICRIP ICRID ICNAME
 1   -99 00141   -99   -99     1     1   -99   -99   -99   -99   -99   -99 -99
@C  ICBL  SH2O  SNH4  SNO3
 1    15  .381    .4   3.5
 1    33  .373    .4   3.5
 1    51  .326    .4   3.5

*PLANTING DETAILS
@P PDATE EDATE  PPOP  PPOE  PLME  PLDS  PLRS  PLRD  PLDP  PLWT  PAGE  PENV  PLPH  SPRL                        PLNAME
 1 00141   -99     8   -99     S     R    30   -99   3.7   -99   -99   -99   -99   -99                        -99
 2 00141   -99    12   -99     S     R    30   -99   3.7   -99   -99   -99   -99   -99                        -99
 3 00141   -99    17   -99     S     R    30   -99   3.7   -99   -99   -99   -99   -99                        -99
 4 00141   -99    22   -99     S     R    30   -99   3.7   -99   -99   -99   -99   -99                        -99
 5 00146   -99     8   -99     S     R    30   -99   3.7   -99   -99   -99   -99   -99                        -99
 6 00146   -99    12   -99     S     R    30   -99   3.7   -99   -99   -99   -99   -99                        -99
 7 00146   -99    17   -99     S     R    30   -99   3.7   -99   -99   -99   -99   -99                        -99
 8 00146   -99    22   -99     S     R    30   -99   3.7   -99   -99   -99   -99   -99                        -99
 9 00151   -99     8   -99     S     R    30   -99   3.7   -99   -99   -99   -99   -99                        -99
10 00151   -99    12   -99     S     R    30   -99   3.7   -99   -99   -99   -99   -99                        -99
11 00151   -99    17   -99     S     R    30   -99   3.7   -99   -99   -99   -99   -99                        -99
12 00151   -99    22   -99     S     R    30   -99   3.7   -99   -99   -99   -99   -99                        -99
13 00157   -99     8   -99     S     R    30   -99   3.7   -99   -99   -99   -99   -99                        -99
14 00157   -99    12   -99     S     R    30   -99   3.7   -99   -99   -99   -99   -99                        -99
15 00157   -99    17   -99     S     R    30   -99   3.7   -99   -99   -99   -99   -99                        -99
16 00157   -99    22   -99     S     R    30   -99   3.7   -99   -99   -99   -99   -99                        -99
17 00162   -99     8   -99     S     R    30   -99   3.7   -99   -99   -99   -99   -99                        -99
18 00162   -99    12   -99     S     R    30   -99   3.7   -99   -99   -99   -99   -99                        -99
19 00162   -99    17   -99     S     R    30   -99   3.7   -99   -99   -99   -99   -99                        -99
20 00162   -99    22   -99     S     R    30   -99   3.7   -99   -99   -99   -99   -99                        -99

*IRRIGATION AND WATER MANAGEMENT
@I  EFIR  IDEP  ITHR  IEPT  IOFF  IAME  IAMT IRNAME
 1   .75    30    50   100 IB001 IB001    10 -99
@I IDATE  IROP IRVAL
 1 00141   -99   -99

*FERTILIZERS (INORGANIC)
@F FDATE  FMCD  FACD  FDEP  FAMN  FAMP  FAMK  FAMC  FAMO  FOCD FERNAME
 1 00141   -99   -99   -99   -99   -99   -99   -99   -99   -99 -99

*ENVIRONMENT MODIFICATIONS
@E ODATE EDAY  ERAD  EMAX  EMIN  ERAIN ECO2  EDEW  EWIND ENVNAME  
 1 00136 A 0.0 A 0.0 A   0 A   0 A 0.0 A   0 A   0 A   0 

*HARVEST DETAILS
@H HDATE  HSTG  HCOM HSIZE   HPC  HBPC HNAME
 1 00136 GS000   -99   -99   -99   -99 Sorghum

*SIMULATION CONTROLS
@N GENERAL     NYERS NREPS START SDATE RSEED SNAME.................... SMODEL
 1 GE             22     1     S 00136  2150 IRRIGATED_30_100          SGCER
@N OPTIONS     WATER NITRO SYMBI PHOSP POTAS DISES  CHEM  TILL   CO2
 1 OP              Y     N     N     N     N     N     N     N     D
@N METHODS     WTHER INCON LIGHT EVAPO INFIL PHOTO HYDRO NSWIT MESOM MESEV MESOL
 1 ME              M     M     E     R     S     L     R     1     G     R     2
@N MANAGEMENT  PLANT IRRIG FERTI RESID HARVS
 1 MA              R     A     R     R     M
@N OUTPUTS     FNAME OVVEW SUMRY FROPT GROUT CAOUT WAOUT NIOUT MIOUT DIOUT VBOSE CHOUT OPOUT FMOPT
 1 OU              N     N     Y    10     N     N     N     N     N     N     0     N     N     C

@  AUTOMATIC MANAGEMENT
@N PLANTING    PFRST PLAST PH2OL PH2OU PH2OD PSTMX PSTMN
 1 PL          00141 00141    40   100    30    40    10
@N IRRIGATION  IMDEP ITHRL ITHRU IROFF IMETH IRAMT IREFF
 1 IR             30    50   100 IB001 IR004    10     1
@N NITROGEN    NMDEP NMTHR NAMNT NCODE NAOFF
 1 NI             30    50    25 IB001 IB001
@N RESIDUES    RIPCN RTIME RIDEP
 1 RE            100     1    20
@N HARVEST     HFRST HLAST HPCNP HPCNR
 1 HA              0 00141   100     0

@N GENERAL     NYERS NREPS START SDATE RSEED SNAME.................... SMODEL
 2 GE             22     1     S 00136  2150 IRRIGATED_60_75           SGCER
@N OPTIONS     WATER NITRO SYMBI PHOSP POTAS DISES  CHEM  TILL   CO2
 2 OP              Y     N     N     N     N     N     N     N     D
@N METHODS     WTHER INCON LIGHT EVAPO INFIL PHOTO HYDRO NSWIT MESOM MESEV MESOL
 2 ME              M     M     E     R     S     L     R     1     G     R     2
@N MANAGEMENT  PLANT IRRIG FERTI RESID HARVS
 2 MA              R     A     R     R     M
@N OUTPUTS     FNAME OVVEW SUMRY FROPT GROUT CAOUT WAOUT NIOUT MIOUT DIOUT VBOSE CHOUT OPOUT FMOPT
 2 OU              N     N     Y    10     N     N     N     N     N     N     0     N     N     C

@  AUTOMATIC MANAGEMENT
@N PLANTING    PFRST PLAST PH2OL PH2OU PH2OD PSTMX PSTMN
 2 PL          00141 00141    40   100    30    40    10
@N IRRIGATION  IMDEP ITHRL ITHRU IROFF IMETH IRAMT IREFF
 2 IR             60    50   100 GS001 IR004    10   .75
@N NITROGEN    NMDEP NMTHR NAMNT NCODE NAOFF
 2 NI             30    50    25 IB001 IB001
@N RESIDUES    RIPCN RTIME RIDEP
 2 RE            100     1    20
@N HARVEST     HFRST HLAST HPCNP HPCNR
 2 HA              0 00141   100     0

@N GENERAL     NYERS NREPS START SDATE RSEED SNAME.................... SMODEL
 3 GE             22     1     S 00136  2150 IRRIGATED_90_50           SGCER
@N OPTIONS     WATER NITRO SYMBI PHOSP POTAS DISES  CHEM  TILL   CO2
 3 OP              Y     N     N     N     N     N     N     N     D
@N METHODS     WTHER INCON LIGHT EVAPO INFIL PHOTO HYDRO NSWIT MESOM MESEV MESOL
 3 ME              M     M     E     R     S     L     R     1     G     R     2
@N MANAGEMENT  PLANT IRRIG FERTI RESID HARVS
 3 MA              R     A     R     R     M
@N OUTPUTS     FNAME OVVEW SUMRY FROPT GROUT CAOUT WAOUT NIOUT MIOUT DIOUT VBOSE CHOUT OPOUT FMOPT
 3 OU              N     N     Y    10     N     N     N     N     N     N     0     N     N     C

@  AUTOMATIC MANAGEMENT
@N PLANTING    PFRST PLAST PH2OL PH2OU PH2OD PSTMX PSTMN
 3 PL          00141 00141    40   100    30    40    10
@N IRRIGATION  IMDEP ITHRL ITHRU IROFF IMETH IRAMT IREFF
 3 IR             90    50   100 GS001 IR004    10    .5
@N NITROGEN    NMDEP NMTHR NAMNT NCODE NAOFF
 3 NI             30    50    25 IB001 IB001
@N RESIDUES    RIPCN RTIME RIDEP
 3 RE            100     1    20
@N HARVEST     HFRST HLAST HPCNP HPCNR
 3 HA              0 00141   100     0

@N GENERAL     NYERS NREPS START SDATE RSEED SNAME.................... SMODEL
 4 GE             22     1     S 00136  2150 NONIRRIGATED              SGCER
@N OPTIONS     WATER NITRO SYMBI PHOSP POTAS DISES  CHEM  TILL   CO2
 4 OP              Y     N     N     N     N     N     N     N     D
@N METHODS     WTHER INCON LIGHT EVAPO INFIL PHOTO HYDRO NSWIT MESOM MESEV MESOL
 4 ME              M     M     E     R     S     L     R     1     G     R     2
@N MANAGEMENT  PLANT IRRIG FERTI RESID HARVS
 4 MA              R     N     R     R     M
@N OUTPUTS     FNAME OVVEW SUMRY FROPT GROUT CAOUT WAOUT NIOUT MIOUT DIOUT VBOSE CHOUT OPOUT FMOPT
 4 OU              N     N     Y    10     N     N     N     N     N     N     0     N     N     C

@  AUTOMATIC MANAGEMENT
@N PLANTING    PFRST PLAST PH2OL PH2OU PH2OD PSTMX PSTMN
 4 PL          00141 00141    40   100    30    40    10
@N IRRIGATION  IMDEP ITHRL ITHRU IROFF IMETH IRAMT IREFF
 4 IR              0     0     0 GS001 IR004    10     0
@N NITROGEN    NMDEP NMTHR NAMNT NCODE NAOFF
 4 NI             30    50    25 IB001 IB001
@N RESIDUES    RIPCN RTIME RIDEP
 4 RE            100     1    20
@N HARVEST     HFRST HLAST HPCNP HPCNR
 4 HA              0 00141   100     0



